Circuit: * C:\Users\Sam B\Desktop\Logic probe\Astable multivibrator.asc

Direct Newton iteration failed to find .op point.  (Use ".option noopiter" to skip.)
Starting Gmin stepping
Gmin = 10
Gmin = 1.07374
Gmin = 0.115292
Gmin = 0.0123794
Gmin = 0.00132923
Gmin = 0.000142725
Gmin = 1.5325e-005
vernier = 0.5
vernier = 0.25
vernier = 0.125
vernier = 0.0625
vernier = 0.03125
vernier = 0.015625
vernier = 0.0078125
vernier = 0.00390625
Gmin = 1.226e-005
vernier = 0.00195313
vernier = 0.000976563
vernier = 0.000488281
Gmin = 0
Gmin stepping failed

Starting source stepping with srcstepmethod=0
Could not converge to DC with sources off!
Starting source stepping with srcstepmethod=1
Could not converge to DC with sources off!
Pseudo Transient failed in finding the operating point at 17.9618 µs.
Trouble finding operating point....skipping operating point for Transient analysis.

Date: Tue Feb 26 11:19:44 2019
Total elapsed time: 2.116 seconds.

tnom = 27
temp = 27
method = modified trap
totiter = 8673191
traniter = 3939
tranpoints = 1763
accept = 1293
rejected = 230855
matrix size = 2
fillins = 0
solver = Normal
Matrix Compiler1:       3 opcodes  0.0/[0.0]/0.0
Matrix Compiler2: 116 bytes object code size  0.0/0.0/[0.0]

