Circuit: * C:\Users\Sam B\Desktop\Logic probe\Monostable.asc

Direct Newton iteration for .op point succeeded.

Date: Tue Feb 26 12:45:28 2019
Total elapsed time: 0.071 seconds.

tnom = 27
temp = 27
method = modified trap
totiter = 3143
traniter = 3129
tranpoints = 1446
accept = 1365
rejected = 81
matrix size = 7
fillins = 0
solver = Normal
Matrix Compiler1: 160 bytes object code size  0.1/0.0/[0.0]
Matrix Compiler2: 379 bytes object code size  0.0/0.0/[0.0]

